LTspice 24.0.9 for Windows
Circuit: * D:\Gabriel\Documents\Universite\S4\APP4\S4iAPP4_prob\add3b_test.asc
Start Time: Mon Mar 18 20:12:25 2024
solver = Normal
Maximum thread count: 8
tnom = 27
temp = 27
method = modified trap
WARNING: Node X1:X1:N008 is floating.
WARNING: Node X1:X1:N005 is floating.
WARNING: Node X1:X1:N001 is floating.
WARNING: Node X1:X1:N002 is floating.
WARNING: Node X1:X1:N006 is floating.
WARNING: Node X1:X1:N007 is floating.
WARNING: Node X1:X1:N012 is floating.
WARNING: Node X1:X1:N011 is floating.
WARNING: Node X1:X2:N008 is floating.
WARNING: Node X1:X2:N005 is floating.
WARNING: Node X1:X2:N001 is floating.
WARNING: Node X1:X2:N002 is floating.
WARNING: Node X1:X2:N006 is floating.
WARNING: Node X1:X2:N007 is floating.
WARNING: Node X1:X2:N012 is floating.
WARNING: Node X1:X2:N011 is floating.
WARNING: Node X1:X3:N003 is floating.
WARNING: Node X1:X3:N005 is floating.
WARNING: Node X1:X3:N001 is floating.
WARNING: Node X1:X3:N002 is floating.
WARNING: Node X1:X4:N003 is floating.
WARNING: Node X1:X4:N005 is floating.
WARNING: Node X1:X4:N001 is floating.
WARNING: Node X1:X4:N002 is floating.
WARNING: Node X1:X5:N003 is floating.
WARNING: Node X1:X5:N005 is floating.
WARNING: Node X1:X5:N001 is floating.
WARNING: Node X1:X5:N002 is floating.
WARNING: Node X1:X6:N008 is floating.
WARNING: Node X1:X6:N005 is floating.
WARNING: Node X1:X6:N001 is floating.
WARNING: Node X1:X6:N002 is floating.
WARNING: Node X1:X6:N006 is floating.
WARNING: Node X1:X6:N007 is floating.
WARNING: Node X1:X6:N012 is floating.
WARNING: Node X1:X6:N011 is floating.
WARNING: Node X1:X7:N008 is floating.
WARNING: Node X1:X7:N005 is floating.
WARNING: Node X1:X7:N001 is floating.
WARNING: Node X1:X7:N002 is floating.
WARNING: Node X1:X7:N006 is floating.
WARNING: Node X1:X7:N007 is floating.
WARNING: Node X1:X7:N012 is floating.
WARNING: Node X1:X7:N011 is floating.
WARNING: Node X1:X8:N003 is floating.
WARNING: Node X1:X8:N005 is floating.
WARNING: Node X1:X8:N001 is floating.
WARNING: Node X1:X8:N002 is floating.
WARNING: Node X1:X9:N003 is floating.
WARNING: Node X1:X9:N005 is floating.
WARNING: Node X1:X9:N001 is floating.
WARNING: Node X1:X9:N002 is floating.
WARNING: Node X1:X10:N003 is floating.
WARNING: Node X1:X10:N005 is floating.
WARNING: Node X1:X10:N001 is floating.
WARNING: Node X1:X10:N002 is floating.
WARNING: Node X1:X11:N008 is floating.
WARNING: Node X1:X11:N005 is floating.
WARNING: Node X1:X11:N001 is floating.
WARNING: Node X1:X11:N002 is floating.
WARNING: Node X1:X11:N006 is floating.
WARNING: Node X1:X11:N007 is floating.
WARNING: Node X1:X11:N012 is floating.
WARNING: Node X1:X11:N011 is floating.
WARNING: Node X1:X12:N008 is floating.
WARNING: Node X1:X12:N005 is floating.
WARNING: Node X1:X12:N001 is floating.
WARNING: Node X1:X12:N002 is floating.
WARNING: Node X1:X12:N006 is floating.
WARNING: Node X1:X12:N007 is floating.
WARNING: Node X1:X12:N012 is floating.
WARNING: Node X1:X12:N011 is floating.
WARNING: Node X1:X13:N003 is floating.
WARNING: Node X1:X13:N005 is floating.
WARNING: Node X1:X13:N001 is floating.
WARNING: Node X1:X13:N002 is floating.
WARNING: Node X1:X14:N003 is floating.
WARNING: Node X1:X14:N005 is floating.
WARNING: Node X1:X14:N001 is floating.
WARNING: Node X1:X14:N002 is floating.
WARNING: Node X1:X15:N003 is floating.
WARNING: Node X1:X15:N005 is floating.
WARNING: Node X1:X15:N001 is floating.
WARNING: Node X1:X15:N002 is floating.

WARNING: Less than two connections to node sel.  This node is used by vsel.
WARNING: Less than two connections to node x1:x1:n008.  This node is used by m:x1:x1:11.
WARNING: Less than two connections to node x1:x1:n005.  This node is used by m:x1:x1:4.
WARNING: Less than two connections to node x1:x1:n001.  This node is used by m:x1:x1:1.
WARNING: Less than two connections to node x1:x1:n002.  This node is used by m:x1:x1:2.
WARNING: Less than two connections to node x1:x1:n006.  This node is used by m:x1:x1:3.
WARNING: Less than two connections to node x1:x1:n007.  This node is used by m:x1:x1:5.
WARNING: Less than two connections to node x1:x1:n012.  This node is used by m:x1:x1:6.
WARNING: Less than two connections to node x1:x1:n011.  This node is used by m:x1:x1:7.
WARNING: Less than two connections to node x1:x2:n008.  This node is used by m:x1:x2:11.
WARNING: Less than two connections to node x1:x2:n005.  This node is used by m:x1:x2:4.
WARNING: Less than two connections to node x1:x2:n001.  This node is used by m:x1:x2:1.
WARNING: Less than two connections to node x1:x2:n002.  This node is used by m:x1:x2:2.
WARNING: Less than two connections to node x1:x2:n006.  This node is used by m:x1:x2:3.
WARNING: Less than two connections to node x1:x2:n007.  This node is used by m:x1:x2:5.
WARNING: Less than two connections to node x1:x2:n012.  This node is used by m:x1:x2:6.
WARNING: Less than two connections to node x1:x2:n011.  This node is used by m:x1:x2:7.
WARNING: Less than two connections to node x1:x3:n003.  This node is used by m:x1:x3:1.
WARNING: Less than two connections to node x1:x3:n005.  This node is used by m:x1:x3:2.
WARNING: Less than two connections to node x1:x3:n001.  This node is used by m:x1:x3:3.
WARNING: Less than two connections to node x1:x3:n002.  This node is used by m:x1:x3:4.
WARNING: Less than two connections to node x1:x4:n003.  This node is used by m:x1:x4:1.
WARNING: Less than two connections to node x1:x4:n005.  This node is used by m:x1:x4:2.
WARNING: Less than two connections to node x1:x4:n001.  This node is used by m:x1:x4:3.
WARNING: Less than two connections to node x1:x4:n002.  This node is used by m:x1:x4:4.
WARNING: Less than two connections to node x1:x5:n003.  This node is used by m:x1:x5:1.
WARNING: Less than two connections to node x1:x5:n005.  This node is used by m:x1:x5:2.
WARNING: Less than two connections to node x1:x5:n001.  This node is used by m:x1:x5:3.
WARNING: Less than two connections to node x1:x5:n002.  This node is used by m:x1:x5:4.
WARNING: Less than two connections to node x1:x6:n008.  This node is used by m:x1:x6:11.
WARNING: Less than two connections to node x1:x6:n005.  This node is used by m:x1:x6:4.
WARNING: Less than two connections to node x1:x6:n001.  This node is used by m:x1:x6:1.
WARNING: Less than two connections to node x1:x6:n002.  This node is used by m:x1:x6:2.
WARNING: Less than two connections to node x1:x6:n006.  This node is used by m:x1:x6:3.
WARNING: Less than two connections to node x1:x6:n007.  This node is used by m:x1:x6:5.
WARNING: Less than two connections to node x1:x6:n012.  This node is used by m:x1:x6:6.
WARNING: Less than two connections to node x1:x6:n011.  This node is used by m:x1:x6:7.
WARNING: Less than two connections to node x1:x7:n008.  This node is used by m:x1:x7:11.
WARNING: Less than two connections to node x1:x7:n005.  This node is used by m:x1:x7:4.
WARNING: Less than two connections to node x1:x7:n001.  This node is used by m:x1:x7:1.
WARNING: Less than two connections to node x1:x7:n002.  This node is used by m:x1:x7:2.
WARNING: Less than two connections to node x1:x7:n006.  This node is used by m:x1:x7:3.
WARNING: Less than two connections to node x1:x7:n007.  This node is used by m:x1:x7:5.
WARNING: Less than two connections to node x1:x7:n012.  This node is used by m:x1:x7:6.
WARNING: Less than two connections to node x1:x7:n011.  This node is used by m:x1:x7:7.
WARNING: Less than two connections to node x1:x8:n003.  This node is used by m:x1:x8:1.
WARNING: Less than two connections to node x1:x8:n005.  This node is used by m:x1:x8:2.
WARNING: Less than two connections to node x1:x8:n001.  This node is used by m:x1:x8:3.
WARNING: Less than two connections to node x1:x8:n002.  This node is used by m:x1:x8:4.
WARNING: Less than two connections to node x1:x9:n003.  This node is used by m:x1:x9:1.
WARNING: Less than two connections to node x1:x9:n005.  This node is used by m:x1:x9:2.
WARNING: Less than two connections to node x1:x9:n001.  This node is used by m:x1:x9:3.
WARNING: Less than two connections to node x1:x9:n002.  This node is used by m:x1:x9:4.
WARNING: Less than two connections to node x1:x10:n003.  This node is used by m:x1:x10:1.
WARNING: Less than two connections to node x1:x10:n005.  This node is used by m:x1:x10:2.
WARNING: Less than two connections to node x1:x10:n001.  This node is used by m:x1:x10:3.
WARNING: Less than two connections to node x1:x10:n002.  This node is used by m:x1:x10:4.
WARNING: Less than two connections to node x1:x11:n008.  This node is used by m:x1:x11:11.
WARNING: Less than two connections to node x1:x11:n005.  This node is used by m:x1:x11:4.
WARNING: Less than two connections to node x1:x11:n001.  This node is used by m:x1:x11:1.
WARNING: Less than two connections to node x1:x11:n002.  This node is used by m:x1:x11:2.
WARNING: Less than two connections to node x1:x11:n006.  This node is used by m:x1:x11:3.
WARNING: Less than two connections to node x1:x11:n007.  This node is used by m:x1:x11:5.
WARNING: Less than two connections to node x1:x11:n012.  This node is used by m:x1:x11:6.
WARNING: Less than two connections to node x1:x11:n011.  This node is used by m:x1:x11:7.
WARNING: Less than two connections to node x1:x12:n008.  This node is used by m:x1:x12:11.
WARNING: Less than two connections to node x1:x12:n005.  This node is used by m:x1:x12:4.
WARNING: Less than two connections to node x1:x12:n001.  This node is used by m:x1:x12:1.
WARNING: Less than two connections to node x1:x12:n002.  This node is used by m:x1:x12:2.
WARNING: Less than two connections to node x1:x12:n006.  This node is used by m:x1:x12:3.
WARNING: Less than two connections to node x1:x12:n007.  This node is used by m:x1:x12:5.
WARNING: Less than two connections to node x1:x12:n012.  This node is used by m:x1:x12:6.
WARNING: Less than two connections to node x1:x12:n011.  This node is used by m:x1:x12:7.
WARNING: Less than two connections to node x1:x13:n003.  This node is used by m:x1:x13:1.
WARNING: Less than two connections to node x1:x13:n005.  This node is used by m:x1:x13:2.
WARNING: Less than two connections to node x1:x13:n001.  This node is used by m:x1:x13:3.
WARNING: Less than two connections to node x1:x13:n002.  This node is used by m:x1:x13:4.
WARNING: Less than two connections to node x1:x14:n003.  This node is used by m:x1:x14:1.
WARNING: Less than two connections to node x1:x14:n005.  This node is used by m:x1:x14:2.
WARNING: Less than two connections to node x1:x14:n001.  This node is used by m:x1:x14:3.
WARNING: Less than two connections to node x1:x14:n002.  This node is used by m:x1:x14:4.
WARNING: Less than two connections to node x1:x15:n003.  This node is used by m:x1:x15:1.
WARNING: Less than two connections to node x1:x15:n005.  This node is used by m:x1:x15:2.
WARNING: Less than two connections to node x1:x15:n001.  This node is used by m:x1:x15:3.
WARNING: Less than two connections to node x1:x15:n002.  This node is used by m:x1:x15:4.
Warning: Pd = 1.62e-13 is less than W.
Warning: Ps = 1.944e-13 is less than W.
Warning: Pd = 1.62e-13 is less than W.
Warning: Ps = 1.944e-13 is less than W.
Warning: Pd = 1.62e-13 is less than W.
Warning: Ps = 1.944e-13 is less than W.
Warning: Pd = 1.62e-13 is less than W.
Warning: Ps = 1.944e-13 is less than W.
Warning: Pd = 1.62e-13 is less than W.
Warning: Ps = 1.944e-13 is less than W.
Warning: Pd = 1.62e-13 is less than W.
Warning: Ps = 1.944e-13 is less than W.
Warning: Pd = 1.62e-13 is less than W.
Warning: Ps = 1.944e-13 is less than W.
Warning: Pd = 1.62e-13 is less than W.
Warning: Ps = 1.944e-13 is less than W.
Warning: Pd = 1.62e-13 is less than W.
Warning: Ps = 1.944e-13 is less than W.
Warning: Pd = 1.62e-13 is less than W.
Warning: Ps = 1.944e-13 is less than W.
Warning: Pd = 1.62e-13 is less than W.
Warning: Ps = 1.944e-13 is less than W.
Warning: Pd = 1.62e-13 is less than W.
Warning: Ps = 1.944e-13 is less than W.
Warning: Pd = 1.62e-13 is less than W.
Warning: Ps = 1.944e-13 is less than W.
Warning: Pd = 1.62e-13 is less than W.
Warning: Ps = 1.944e-13 is less than W.
Warning: Pd = 1.62e-13 is less than W.
Warning: Ps = 1.944e-13 is less than W.
Early termination of direct N-R iteration.
Direct Newton iteration failed to find .op point.  (Use ".option noopiter" to skip.)
Starting Gmin stepping
Gmin = 10
Gmin = 1.07374
Gmin = 0.115292
Gmin = 0.0123794
Gmin = 0.00132923
Gmin = 0.000142725
Gmin = 1.5325e-05
Gmin = 1.6455e-06
Gmin = 1.76685e-07
Gmin = 1.89714e-08
Gmin = 2.03704e-09
Gmin = 2.18725e-10
Gmin = 2.34854e-11
Gmin = 2.52173e-12
Gmin = 2.70769e-13
Gmin = 0
Gmin stepping succeeded in finding the operating point.



Measurement "t1" FAIL'ed

Measurement "t2" FAIL'ed

Measurement "t3" FAIL'ed

Measurement "t4" FAIL'ed

Measurement "transition_up" FAIL'ed

Measurement "transition_down" FAIL'ed

Measurement "ratio" FAIL'ed

Total elapsed time: 0.633 seconds.

