LTspice 24.0.9 for Windows
Circuit: * D:\Gabriel\Documents\Universite\S4\APP4\S4iAPP4_prob\and3b_test.asc
Start Time: Mon Mar 18 20:28:58 2024
solver = Normal
Maximum thread count: 8
tnom = 27
temp = 27
method = modified trap
WARNING: Node X1:X1:N003 is floating.
WARNING: Node X1:X1:N005 is floating.
WARNING: Node X1:X1:N001 is floating.
WARNING: Node X1:X1:N002 is floating.
WARNING: Node X1:X2:N003 is floating.
WARNING: Node X1:X2:N005 is floating.
WARNING: Node X1:X2:N001 is floating.
WARNING: Node X1:X2:N002 is floating.
WARNING: Node X1:X3:N003 is floating.
WARNING: Node X1:X3:N005 is floating.
WARNING: Node X1:X3:N001 is floating.
WARNING: Node X1:X3:N002 is floating.

WARNING: Less than two connections to node sel.  This node is used by vsel.
WARNING: Less than two connections to node x1:x1:n003.  This node is used by m:x1:x1:1.
WARNING: Less than two connections to node x1:x1:n005.  This node is used by m:x1:x1:2.
WARNING: Less than two connections to node x1:x1:n001.  This node is used by m:x1:x1:3.
WARNING: Less than two connections to node x1:x1:n002.  This node is used by m:x1:x1:4.
WARNING: Less than two connections to node x1:x2:n003.  This node is used by m:x1:x2:1.
WARNING: Less than two connections to node x1:x2:n005.  This node is used by m:x1:x2:2.
WARNING: Less than two connections to node x1:x2:n001.  This node is used by m:x1:x2:3.
WARNING: Less than two connections to node x1:x2:n002.  This node is used by m:x1:x2:4.
WARNING: Less than two connections to node x1:x3:n003.  This node is used by m:x1:x3:1.
WARNING: Less than two connections to node x1:x3:n005.  This node is used by m:x1:x3:2.
WARNING: Less than two connections to node x1:x3:n001.  This node is used by m:x1:x3:3.
WARNING: Less than two connections to node x1:x3:n002.  This node is used by m:x1:x3:4.
Warning: Pd = 1.62e-13 is less than W.
Warning: Ps = 1.944e-13 is less than W.
Warning: Pd = 1.62e-13 is less than W.
Warning: Ps = 1.944e-13 is less than W.
Warning: Pd = 1.62e-13 is less than W.
Warning: Ps = 1.944e-13 is less than W.
Direct Newton iteration for .op point succeeded.

t1: time=1.00036e-09 at 1.00036e-09
t2: time=1.00063e-09 at 1.00063e-09
t3: time=3.1026e-09 at 3.1026e-09
t4: time=3.03745e-09 at 3.03745e-09
transition_up: abs(t2-t1)=2.70603e-13
transition_down: abs(t4-t3)=6.51475e-11

Measurement "ratio" FAIL'ed

Total elapsed time: 0.462 seconds.

