LTspice 24.0.9 for Windows
Circuit: * D:\Gabriel\Documents\Universite\S4\APP4\S4iAPP4_prob\inv_test.asc
Start Time: Mon Mar 18 20:20:57 2024
solver = Normal
Maximum thread count: 8
tnom = 27
temp = 27
method = modified trap
WARNING: Less than two connections to node b.  This node is used by v2.
Direct Newton iteration for .op point succeeded.

t1: time=4.01061e-09 at 4.01061e-09
t2: time=4.07138e-09 at 4.07138e-09
t3: time=2.07475e-09 at 2.07475e-09
t4: time=2.014e-09 at 2.014e-09
transition_up: abs(t2-t1)=6.07742e-11
transition_down: abs(t4-t3)=6.07464e-11

Measurement "ratio" FAIL'ed

Total elapsed time: 0.227 seconds.

