LTspice 24.0.9 for Windows
Circuit: * D:\Gabriel\Documents\Universite\S4\APP4\S4iAPP4_prob\mux2x3b_test.asc
Start Time: Mon Mar 18 20:29:07 2024
solver = Normal
Maximum thread count: 8
tnom = 27
temp = 27
method = modified trap
WARNING: Node X2:X2:N003 is floating.
WARNING: Node X2:X2:N005 is floating.
WARNING: Node X2:X2:N001 is floating.
WARNING: Node X2:X2:N002 is floating.
WARNING: Node X2:X3:N003 is floating.
WARNING: Node X2:X3:N005 is floating.
WARNING: Node X2:X3:N001 is floating.
WARNING: Node X2:X3:N002 is floating.
WARNING: Node X2:X4:N003 is floating.
WARNING: Node X2:X4:N005 is floating.
WARNING: Node X2:X4:N001 is floating.
WARNING: Node X2:X4:N002 is floating.
WARNING: Node X2:X5:N003 is floating.
WARNING: Node X2:X5:N005 is floating.
WARNING: Node X2:X5:N001 is floating.
WARNING: Node X2:X5:N002 is floating.
WARNING: Node X2:X6:N003 is floating.
WARNING: Node X2:X6:N005 is floating.
WARNING: Node X2:X6:N001 is floating.
WARNING: Node X2:X6:N002 is floating.
WARNING: Node X2:X7:N003 is floating.
WARNING: Node X2:X7:N005 is floating.
WARNING: Node X2:X7:N001 is floating.
WARNING: Node X2:X7:N002 is floating.
WARNING: Node X2:X9:N003 is floating.
WARNING: Node X2:X9:N005 is floating.
WARNING: Node X2:X9:N001 is floating.
WARNING: Node X2:X9:N002 is floating.
WARNING: Node X2:X10:N003 is floating.
WARNING: Node X2:X10:N005 is floating.
WARNING: Node X2:X10:N001 is floating.
WARNING: Node X2:X10:N002 is floating.
WARNING: Node X2:X11:N003 is floating.
WARNING: Node X2:X11:N005 is floating.
WARNING: Node X2:X11:N001 is floating.
WARNING: Node X2:X11:N002 is floating.

WARNING: Less than two connections to node x2:x2:n003.  This node is used by m:x2:x2:1.
WARNING: Less than two connections to node x2:x2:n005.  This node is used by m:x2:x2:2.
WARNING: Less than two connections to node x2:x2:n001.  This node is used by m:x2:x2:3.
WARNING: Less than two connections to node x2:x2:n002.  This node is used by m:x2:x2:4.
WARNING: Less than two connections to node x2:x3:n003.  This node is used by m:x2:x3:1.
WARNING: Less than two connections to node x2:x3:n005.  This node is used by m:x2:x3:2.
WARNING: Less than two connections to node x2:x3:n001.  This node is used by m:x2:x3:3.
WARNING: Less than two connections to node x2:x3:n002.  This node is used by m:x2:x3:4.
WARNING: Less than two connections to node x2:x4:n003.  This node is used by m:x2:x4:1.
WARNING: Less than two connections to node x2:x4:n005.  This node is used by m:x2:x4:2.
WARNING: Less than two connections to node x2:x4:n001.  This node is used by m:x2:x4:3.
WARNING: Less than two connections to node x2:x4:n002.  This node is used by m:x2:x4:4.
WARNING: Less than two connections to node x2:x5:n003.  This node is used by m:x2:x5:1.
WARNING: Less than two connections to node x2:x5:n005.  This node is used by m:x2:x5:2.
WARNING: Less than two connections to node x2:x5:n001.  This node is used by m:x2:x5:3.
WARNING: Less than two connections to node x2:x5:n002.  This node is used by m:x2:x5:4.
WARNING: Less than two connections to node x2:x6:n003.  This node is used by m:x2:x6:1.
WARNING: Less than two connections to node x2:x6:n005.  This node is used by m:x2:x6:2.
WARNING: Less than two connections to node x2:x6:n001.  This node is used by m:x2:x6:3.
WARNING: Less than two connections to node x2:x6:n002.  This node is used by m:x2:x6:4.
WARNING: Less than two connections to node x2:x7:n003.  This node is used by m:x2:x7:1.
WARNING: Less than two connections to node x2:x7:n005.  This node is used by m:x2:x7:2.
WARNING: Less than two connections to node x2:x7:n001.  This node is used by m:x2:x7:3.
WARNING: Less than two connections to node x2:x7:n002.  This node is used by m:x2:x7:4.
WARNING: Less than two connections to node x2:x9:n003.  This node is used by m:x2:x9:1.
WARNING: Less than two connections to node x2:x9:n005.  This node is used by m:x2:x9:2.
WARNING: Less than two connections to node x2:x9:n001.  This node is used by m:x2:x9:3.
WARNING: Less than two connections to node x2:x9:n002.  This node is used by m:x2:x9:4.
WARNING: Less than two connections to node x2:x10:n003.  This node is used by m:x2:x10:1.
WARNING: Less than two connections to node x2:x10:n005.  This node is used by m:x2:x10:2.
WARNING: Less than two connections to node x2:x10:n001.  This node is used by m:x2:x10:3.
WARNING: Less than two connections to node x2:x10:n002.  This node is used by m:x2:x10:4.
WARNING: Less than two connections to node x2:x11:n003.  This node is used by m:x2:x11:1.
WARNING: Less than two connections to node x2:x11:n005.  This node is used by m:x2:x11:2.
WARNING: Less than two connections to node x2:x11:n001.  This node is used by m:x2:x11:3.
WARNING: Less than two connections to node x2:x11:n002.  This node is used by m:x2:x11:4.
Warning: Pd = 1.62e-13 is less than W.
Warning: Ps = 1.944e-13 is less than W.
Warning: Pd = 1.62e-13 is less than W.
Warning: Ps = 1.944e-13 is less than W.
Warning: Pd = 1.62e-13 is less than W.
Warning: Ps = 1.944e-13 is less than W.
Warning: Pd = 1.62e-13 is less than W.
Warning: Ps = 1.944e-13 is less than W.
Warning: Pd = 1.62e-13 is less than W.
Warning: Ps = 1.944e-13 is less than W.
Warning: Pd = 1.62e-13 is less than W.
Warning: Ps = 1.944e-13 is less than W.
Warning: Pd = 1.62e-13 is less than W.
Warning: Ps = 1.944e-13 is less than W.
Warning: Pd = 1.62e-13 is less than W.
Warning: Ps = 1.944e-13 is less than W.
Warning: Pd = 1.62e-13 is less than W.
Warning: Ps = 1.944e-13 is less than W.
Early termination of direct N-R iteration.
Direct Newton iteration failed to find .op point.  (Use ".option noopiter" to skip.)
Starting Gmin stepping
Gmin = 10
Gmin = 1.07374
Gmin = 0.115292
Gmin = 0.0123794
Gmin = 0.00132923
Gmin = 0.000142725
Gmin = 1.5325e-05
Gmin = 1.6455e-06
Gmin = 1.76685e-07
Gmin = 1.89714e-08
Gmin = 2.03704e-09
Gmin = 2.18725e-10
Gmin = 2.34854e-11
Gmin = 2.52173e-12
Gmin = 2.70769e-13
Gmin = 0
Gmin stepping succeeded in finding the operating point.

Total elapsed time: 0.358 seconds.

