LTspice 24.0.9 for Windows
Circuit: * D:\Gabriel\Documents\Universite\S4\APP4\S4iAPP4_prob\nand_test.asc
Start Time: Mon Mar 18 20:18:11 2024
solver = Normal
Maximum thread count: 8
tnom = 27
temp = 27
method = modified trap
WARNING: Node X9:N003 is floating.
WARNING: Node X9:N005 is floating.
WARNING: Node X9:N001 is floating.
WARNING: Node X9:N002 is floating.

WARNING: Less than two connections to node x9:n003.  This node is used by m:x9:1.
WARNING: Less than two connections to node x9:n005.  This node is used by m:x9:2.
WARNING: Less than two connections to node x9:n001.  This node is used by m:x9:3.
WARNING: Less than two connections to node x9:n002.  This node is used by m:x9:4.
Warning: Pd = 1.296e-12 is less than W.
Warning: Ps = 1.5552e-12 is less than W.
Direct Newton iteration for .op point succeeded.

t1: time=3.0182e-09 at 3.0182e-09
t2: time=3.0828e-09 at 3.0828e-09
t3: time=2.02618e-09 at 2.02618e-09
t4: time=2.00626e-09 at 2.00626e-09
transition_up: abs(t2-t1)=6.45953e-11
transition_down: abs(t4-t3)=1.99155e-11

Measurement "ratio" FAIL'ed

Total elapsed time: 0.319 seconds.

