LTspice 24.0.9 for Windows
Circuit: * D:\Gabriel\Documents\Universite\S4\APP4\S4iAPP4_prob\nor_test.asc
Start Time: Tue Mar 19 09:16:29 2024
solver = Normal
Maximum thread count: 8
tnom = 27
temp = 27
method = modified trap
WARNING: Node X1:N001 is floating.
WARNING: Node X1:N004 is floating.
WARNING: Node X1:N005 is floating.
WARNING: Node X1:N003 is floating.

WARNING: Less than two connections to node x1:n001.  This node is used by m:x1:1.
WARNING: Less than two connections to node x1:n004.  This node is used by m:x1:3.
WARNING: Less than two connections to node x1:n005.  This node is used by m:x1:4.
WARNING: Less than two connections to node x1:n003.  This node is used by m:x1:2.
Warning: Pd = 3.24e-13 is less than W.
Warning: Ps = 3.888e-13 is less than W.
Direct Newton iteration for .op point succeeded.

t1: time=2.00084e-09 at 2.00084e-09
t2: time=4.07409e-09 at 4.07409e-09
t3: time=1.05074e-09 at 1.05074e-09
t4: time=1.01139e-09 at 1.01139e-09
transition_up: abs(t2-t1)=2.07325e-09
transition_down: abs(t4-t3)=3.9344e-11

Measurement "ratio" FAIL'ed

Total elapsed time: 0.249 seconds.

